Version 4
SHEET 1 880 680
WIRE 240 -64 -320 -64
WIRE 464 -64 240 -64
WIRE 240 0 240 -64
WIRE 464 0 464 -64
WIRE -320 112 -320 -64
WIRE 464 112 464 80
WIRE 32 160 -16 160
WIRE 144 160 112 160
WIRE 240 160 240 80
WIRE 240 160 208 160
WIRE 400 160 240 160
WIRE -16 208 -16 160
WIRE 464 240 464 208
WIRE 560 240 464 240
WIRE 240 256 240 160
WIRE 464 256 464 240
WIRE 560 256 560 240
WIRE 464 352 464 336
WIRE 560 352 560 320
WIRE 560 352 464 352
WIRE -320 368 -320 192
WIRE -16 368 -16 288
WIRE -16 368 -320 368
WIRE 240 368 240 336
WIRE 240 368 -16 368
WIRE 464 368 464 352
WIRE 464 368 240 368
WIRE -16 400 -16 368
FLAG -16 400 0
DATAFLAG 240 144 ""
DATAFLAG 464 96 ""
SYMBOL npn 400 112 R0
SYMATTR InstName Q1
SYMATTR Value BC547B
SYMBOL res 448 -16 R0
SYMATTR InstName R1
SYMATTR Value 240
SYMBOL res 448 240 R0
SYMATTR InstName R2
SYMATTR Value 56
SYMBOL res 224 -16 R0
SYMATTR InstName R3
SYMATTR Value 10k
SYMBOL res 224 240 R0
SYMATTR InstName R4
SYMATTR Value 2.2k
SYMBOL voltage -16 192 R0
WINDOW 3 -218 93 Left 2
WINDOW 123 0 0 Left 0
WINDOW 39 0 0 Left 0
SYMATTR Value SINE(0 0.05 10k)
SYMATTR InstName V1
SYMBOL voltage -320 96 R0
WINDOW 123 0 0 Left 0
WINDOW 39 0 0 Left 0
SYMATTR InstName V2
SYMATTR Value 12
SYMBOL cap 544 256 R0
SYMATTR InstName C2
SYMATTR Value 1m
SYMBOL res 128 144 R90
WINDOW 0 0 56 VBottom 2
WINDOW 3 32 56 VTop 2
SYMATTR InstName R5
SYMATTR Value 1.1k
SYMBOL cap 208 144 R90
WINDOW 0 0 32 VBottom 2
WINDOW 3 32 32 VTop 2
SYMATTR InstName C1
SYMATTR Value 4.7µ
TEXT -352 424 Left 2 !.tran 10m
